Version 4
SHEET 1 1156 688
WIRE 688 16 688 -96
WIRE 128 128 128 64
WIRE 64 144 -32 144
WIRE 1136 144 960 144
WIRE 304 160 192 160
WIRE 688 160 688 96
WIRE 688 160 576 160
WIRE 880 160 880 144
WIRE 880 160 688 160
WIRE 1136 160 1136 144
WIRE -32 176 -32 144
WIRE 64 176 -32 176
WIRE 304 192 304 160
WIRE -32 224 -32 176
WIRE 688 224 688 160
WIRE 128 256 128 192
WIRE 304 320 304 272
WIRE 688 416 688 304
FLAG -32 224 0
FLAG 128 64 vdda
FLAG 128 256 vssa
FLAG 304 320 gnda
FLAG 1136 160 0
FLAG 688 -96 vdda
FLAG 576 160 gnda
FLAG 688 416 vssa
SYMBOL opamp-schem 112 160 R0
SYMATTR InstName X1
SYMBOL res 288 176 R0
SYMATTR InstName R1
SYMATTR Value 1Meg
SYMBOL voltage 688 0 R0
WINDOW 123 0 0 Left 0
WINDOW 39 0 0 Left 0
SYMATTR InstName V1
SYMATTR Value 2.5
SYMBOL voltage 688 208 R0
WINDOW 123 0 0 Left 0
WINDOW 39 0 0 Left 0
SYMATTR InstName V2
SYMATTR Value 2.5
SYMBOL res 976 128 R90
WINDOW 0 0 56 VBottom 2
WINDOW 3 32 56 VTop 2
SYMATTR InstName RTAP
SYMATTR Value 0.1
TEXT -56 520 Left 2 !.op
TEXT -56 608 Left 2 !*.step param w8 1u 20u 1u\n.param w8 5.7891004u
TEXT -48 672 Left 2 !.step param w7 1u 20u 1u
