Version 4
SHEET 1 880 680
WIRE 496 32 496 -48
WIRE 0 96 0 0
WIRE -160 128 -176 128
WIRE -64 128 -160 128
WIRE 160 144 64 144
WIRE 496 144 496 112
WIRE 496 144 400 144
WIRE 592 144 496 144
WIRE 688 144 672 144
WIRE -176 160 -176 128
WIRE -64 160 -96 160
WIRE 496 176 496 144
WIRE 688 192 688 144
WIRE -96 224 -96 160
WIRE 160 224 160 144
WIRE -176 304 -176 240
WIRE 0 304 0 192
WIRE 160 336 160 304
WIRE 496 336 496 256
FLAG 688 192 0
FLAG 496 336 vssa
FLAG 496 -48 vdda
FLAG 400 144 gnda
FLAG -176 304 0
FLAG 0 304 vssa
FLAG 0 0 vdda
FLAG 160 144 out
FLAG 160 336 gnda
FLAG -96 224 0
FLAG -160 128 in
SYMBOL opamp-schem -16 144 R0
SYMATTR InstName X1
SYMBOL voltage 496 16 R0
WINDOW 123 0 0 Left 0
WINDOW 39 0 0 Left 0
SYMATTR InstName V1
SYMATTR Value 2.5
SYMBOL voltage 496 160 R0
WINDOW 123 0 0 Left 0
WINDOW 39 0 0 Left 0
SYMATTR InstName V2
SYMATTR Value 2.5
SYMBOL res 688 128 R90
WINDOW 0 0 56 VBottom 2
WINDOW 3 32 56 VTop 2
SYMATTR InstName RTAP
SYMATTR Value 0.1
SYMBOL res 144 208 R0
SYMATTR InstName R2
SYMATTR Value 1Meg
SYMBOL voltage -176 144 R0
WINDOW 123 24 124 Left 2
WINDOW 39 0 0 Left 0
SYMATTR InstName V3
SYMATTR Value 0
SYMATTR Value2 AC 1m 0
TEXT 360 560 Left 2 !.ac dec 100 1 1G
